gld_dss_conversion/trial_6/python/z.txt
New Load.trip_load_652_A_h_1	Bus1=trip_node_652_A_1.1.2 phases=1 Conn=Wye kV=0.208 kW=3.0 kvar=0.0
New Load.trip_load_652_A_h_2	Bus1=trip_node_652_A_1.1.2 phases=1 Conn=Wye kV=0.208 kW=3.0 kvar=0.0
New Load.trip_load_652_A_h_3	Bus1=trip_node_652_A_1.1.2 phases=1 Conn=Wye kV=0.208 kW=3.0 kvar=0.0
New Load.trip_load_652_A_h_4	Bus1=trip_node_652_A_1.1.2 phases=1 Conn=Wye kV=0.208 kW=3.0 kvar=0.0
New Load.trip_load_652_A_h_5	Bus1=trip_node_652_A_1.1.2 phases=1 Conn=Wye kV=0.208 kW=3.0 kvar=0.0
New Load.trip_load_652_A_h_6	Bus1=trip_node_652_A_1.1.2 phases=1 Conn=Wye kV=0.208 kW=3.0 kvar=0.0
New Load.trip_load_652_A_h_7	Bus1=trip_node_652_A_1.1.2 phases=1 Conn=Wye kV=0.208 kW=3.0 kvar=0.0
New Load.trip_load_652_A_h_8	Bus1=trip_node_652_A_1.1.2 phases=1 Conn=Wye kV=0.208 kW=3.0 kvar=0.0
New Load.trip_load_652_A_h_9	Bus1=trip_node_652_A_2.1.2 phases=1 Conn=Wye kV=0.208 kW=3.0 kvar=0.0
New Load.trip_load_652_A_h_10	Bus1=trip_node_652_A_2.1.2 phases=1 Conn=Wye kV=0.208 kW=3.0 kvar=0.0
New Load.trip_load_652_A_h_11	Bus1=trip_node_652_A_2.1.2 phases=1 Conn=Wye kV=0.208 kW=3.0 kvar=0.0
New Load.trip_load_652_A_h_12	Bus1=trip_node_652_A_2.1.2 phases=1 Conn=Wye kV=0.208 kW=3.0 kvar=0.0
New Load.trip_load_652_A_h_13	Bus1=trip_node_652_A_2.1.2 phases=1 Conn=Wye kV=0.208 kW=3.0 kvar=0.0
New Load.trip_load_652_A_h_14	Bus1=trip_node_652_A_2.1.2 phases=1 Conn=Wye kV=0.208 kW=3.0 kvar=0.0
New Load.trip_load_652_A_h_15	Bus1=trip_node_652_A_2.1.2 phases=1 Conn=Wye kV=0.208 kW=3.0 kvar=0.0
New Load.trip_load_652_A_h_16	Bus1=trip_node_652_A_2.1.2 phases=1 Conn=Wye kV=0.208 kW=3.0 kvar=0.0
New Load.trip_load_652_A_h_17	Bus1=trip_node_652_A_3.1.2 phases=1 Conn=Wye kV=0.208 kW=3.0 kvar=0.0
New Load.trip_load_652_A_h_18	Bus1=trip_node_652_A_3.1.2 phases=1 Conn=Wye kV=0.208 kW=3.0 kvar=0.0
New Load.trip_load_652_A_h_19	Bus1=trip_node_652_A_3.1.2 phases=1 Conn=Wye kV=0.208 kW=3.0 kvar=0.0
New Load.trip_load_652_A_h_20	Bus1=trip_node_652_A_3.1.2 phases=1 Conn=Wye kV=0.208 kW=3.0 kvar=0.0
New Load.trip_load_652_A_h_21	Bus1=trip_node_652_A_3.1.2 phases=1 Conn=Wye kV=0.208 kW=3.0 kvar=0.0
New Load.trip_load_652_A_h_22	Bus1=trip_node_652_A_3.1.2 phases=1 Conn=Wye kV=0.208 kW=3.0 kvar=0.0
New Load.trip_load_652_A_h_23	Bus1=trip_node_652_A_3.1.2 phases=1 Conn=Wye kV=0.208 kW=3.0 kvar=0.0
New Load.trip_load_652_A_h_24	Bus1=trip_node_652_A_3.1.2 phases=1 Conn=Wye kV=0.208 kW=3.0 kvar=0.0
New Load.trip_load_652_A_h_25	Bus1=trip_node_652_A_4.1.2 phases=1 Conn=Wye kV=0.208 kW=3.0 kvar=0.0
New Load.trip_load_652_A_h_26	Bus1=trip_node_652_A_4.1.2 phases=1 Conn=Wye kV=0.208 kW=3.0 kvar=0.0
New Load.trip_load_652_A_h_27	Bus1=trip_node_652_A_4.1.2 phases=1 Conn=Wye kV=0.208 kW=3.0 kvar=0.0
New Load.trip_load_652_A_h_28	Bus1=trip_node_652_A_4.1.2 phases=1 Conn=Wye kV=0.208 kW=3.0 kvar=0.0
New Load.trip_load_652_A_h_29	Bus1=trip_node_652_A_4.1.2 phases=1 Conn=Wye kV=0.208 kW=3.0 kvar=0.0
New Load.trip_load_652_A_h_30	Bus1=trip_node_652_A_4.1.2 phases=1 Conn=Wye kV=0.208 kW=3.0 kvar=0.0
New Load.trip_load_652_A_h_31	Bus1=trip_node_652_A_4.1.2 phases=1 Conn=Wye kV=0.208 kW=3.0 kvar=0.0
New Load.trip_load_652_A_h_32	Bus1=trip_node_652_A_4.1.2 phases=1 Conn=Wye kV=0.208 kW=3.0 kvar=0.0
New Load.trip_load_652_A_h_33	Bus1=trip_node_652_A_5.1.2 phases=1 Conn=Wye kV=0.208 kW=3.0 kvar=0.0
New Load.trip_load_652_A_h_34	Bus1=trip_node_652_A_5.1.2 phases=1 Conn=Wye kV=0.208 kW=3.0 kvar=0.0
New Load.trip_load_652_A_h_35	Bus1=trip_node_652_A_5.1.2 phases=1 Conn=Wye kV=0.208 kW=3.0 kvar=0.0
New Load.trip_load_652_A_h_36	Bus1=trip_node_652_A_5.1.2 phases=1 Conn=Wye kV=0.208 kW=3.0 kvar=0.0
New Load.trip_load_652_A_h_37	Bus1=trip_node_652_A_5.1.2 phases=1 Conn=Wye kV=0.208 kW=3.0 kvar=0.0
New Load.trip_load_652_A_h_38	Bus1=trip_node_652_A_5.1.2 phases=1 Conn=Wye kV=0.208 kW=3.0 kvar=0.0
New Load.trip_load_652_A_h_39	Bus1=trip_node_652_A_5.1.2 phases=1 Conn=Wye kV=0.208 kW=3.0 kvar=0.0
New Load.trip_load_652_A_h_40	Bus1=trip_node_652_A_5.1.2 phases=1 Conn=Wye kV=0.208 kW=3.0 kvar=0.0
New Load.trip_load_611_C_h_1	Bus1=trip_node_611_C_1.1.2 phases=1 Conn=Wye kV=0.208 kW=3.0 kvar=0.0
New Load.trip_load_611_C_h_2	Bus1=trip_node_611_C_1.1.2 phases=1 Conn=Wye kV=0.208 kW=3.0 kvar=0.0
New Load.trip_load_611_C_h_3	Bus1=trip_node_611_C_1.1.2 phases=1 Conn=Wye kV=0.208 kW=3.0 kvar=0.0
New Load.trip_load_611_C_h_4	Bus1=trip_node_611_C_1.1.2 phases=1 Conn=Wye kV=0.208 kW=3.0 kvar=0.0
New Load.trip_load_611_C_h_5	Bus1=trip_node_611_C_1.1.2 phases=1 Conn=Wye kV=0.208 kW=3.0 kvar=0.0
New Load.trip_load_611_C_h_6	Bus1=trip_node_611_C_1.1.2 phases=1 Conn=Wye kV=0.208 kW=3.0 kvar=0.0
New Load.trip_load_611_C_h_7	Bus1=trip_node_611_C_1.1.2 phases=1 Conn=Wye kV=0.208 kW=3.0 kvar=0.0
New Load.trip_load_611_C_h_8	Bus1=trip_node_611_C_1.1.2 phases=1 Conn=Wye kV=0.208 kW=3.0 kvar=0.0
New Load.trip_load_611_C_h_9	Bus1=trip_node_611_C_2.1.2 phases=1 Conn=Wye kV=0.208 kW=3.0 kvar=0.0
New Load.trip_load_611_C_h_10	Bus1=trip_node_611_C_2.1.2 phases=1 Conn=Wye kV=0.208 kW=3.0 kvar=0.0
New Load.trip_load_611_C_h_11	Bus1=trip_node_611_C_2.1.2 phases=1 Conn=Wye kV=0.208 kW=3.0 kvar=0.0
New Load.trip_load_611_C_h_12	Bus1=trip_node_611_C_2.1.2 phases=1 Conn=Wye kV=0.208 kW=3.0 kvar=0.0
New Load.trip_load_611_C_h_13	Bus1=trip_node_611_C_2.1.2 phases=1 Conn=Wye kV=0.208 kW=3.0 kvar=0.0
New Load.trip_load_611_C_h_14	Bus1=trip_node_611_C_2.1.2 phases=1 Conn=Wye kV=0.208 kW=3.0 kvar=0.0
New Load.trip_load_611_C_h_15	Bus1=trip_node_611_C_2.1.2 phases=1 Conn=Wye kV=0.208 kW=3.0 kvar=0.0
New Load.trip_load_611_C_h_16	Bus1=trip_node_611_C_2.1.2 phases=1 Conn=Wye kV=0.208 kW=3.0 kvar=0.0
New Load.trip_load_611_C_h_17	Bus1=trip_node_611_C_3.1.2 phases=1 Conn=Wye kV=0.208 kW=3.0 kvar=0.0
New Load.trip_load_611_C_h_18	Bus1=trip_node_611_C_3.1.2 phases=1 Conn=Wye kV=0.208 kW=3.0 kvar=0.0
New Load.trip_load_611_C_h_19	Bus1=trip_node_611_C_3.1.2 phases=1 Conn=Wye kV=0.208 kW=3.0 kvar=0.0
New Load.trip_load_611_C_h_20	Bus1=trip_node_611_C_3.1.2 phases=1 Conn=Wye kV=0.208 kW=3.0 kvar=0.0
New Load.trip_load_611_C_h_21	Bus1=trip_node_611_C_3.1.2 phases=1 Conn=Wye kV=0.208 kW=3.0 kvar=0.0
New Load.trip_load_611_C_h_22	Bus1=trip_node_611_C_3.1.2 phases=1 Conn=Wye kV=0.208 kW=3.0 kvar=0.0
New Load.trip_load_611_C_h_23	Bus1=trip_node_611_C_3.1.2 phases=1 Conn=Wye kV=0.208 kW=3.0 kvar=0.0
New Load.trip_load_611_C_h_24	Bus1=trip_node_611_C_3.1.2 phases=1 Conn=Wye kV=0.208 kW=3.0 kvar=0.0
New Load.trip_load_611_C_h_25	Bus1=trip_node_611_C_4.1.2 phases=1 Conn=Wye kV=0.208 kW=3.0 kvar=0.0
New Load.trip_load_611_C_h_26	Bus1=trip_node_611_C_4.1.2 phases=1 Conn=Wye kV=0.208 kW=3.0 kvar=0.0
New Load.trip_load_611_C_h_27	Bus1=trip_node_611_C_4.1.2 phases=1 Conn=Wye kV=0.208 kW=3.0 kvar=0.0
New Load.trip_load_611_C_h_28	Bus1=trip_node_611_C_4.1.2 phases=1 Conn=Wye kV=0.208 kW=3.0 kvar=0.0
New Load.trip_load_611_C_h_29	Bus1=trip_node_611_C_4.1.2 phases=1 Conn=Wye kV=0.208 kW=3.0 kvar=0.0
New Load.trip_load_611_C_h_30	Bus1=trip_node_611_C_4.1.2 phases=1 Conn=Wye kV=0.208 kW=3.0 kvar=0.0
New Load.trip_load_611_C_h_31	Bus1=trip_node_611_C_4.1.2 phases=1 Conn=Wye kV=0.208 kW=3.0 kvar=0.0
New Load.trip_load_611_C_h_32	Bus1=trip_node_611_C_4.1.2 phases=1 Conn=Wye kV=0.208 kW=3.0 kvar=0.0
New Load.trip_load_611_C_h_33	Bus1=trip_node_611_C_5.1.2 phases=1 Conn=Wye kV=0.208 kW=3.0 kvar=0.0
New Load.trip_load_611_C_h_34	Bus1=trip_node_611_C_5.1.2 phases=1 Conn=Wye kV=0.208 kW=3.0 kvar=0.0
New Load.trip_load_611_C_h_35	Bus1=trip_node_611_C_5.1.2 phases=1 Conn=Wye kV=0.208 kW=3.0 kvar=0.0
New Load.trip_load_611_C_h_36	Bus1=trip_node_611_C_5.1.2 phases=1 Conn=Wye kV=0.208 kW=3.0 kvar=0.0
New Load.trip_load_611_C_h_37	Bus1=trip_node_611_C_5.1.2 phases=1 Conn=Wye kV=0.208 kW=3.0 kvar=0.0
New Load.trip_load_611_C_h_38	Bus1=trip_node_611_C_5.1.2 phases=1 Conn=Wye kV=0.208 kW=3.0 kvar=0.0
New Load.trip_load_611_C_h_39	Bus1=trip_node_611_C_5.1.2 phases=1 Conn=Wye kV=0.208 kW=3.0 kvar=0.0
New Load.trip_load_611_C_h_40	Bus1=trip_node_611_C_5.1.2 phases=1 Conn=Wye kV=0.208 kW=3.0 kvar=0.0
New Load.trip_load_684_C_h_1	Bus1=trip_node_684_C_1.1.2 phases=1 Conn=Wye kV=0.208 kW=3.0 kvar=0.0
New Load.trip_load_684_C_h_2	Bus1=trip_node_684_C_1.1.2 phases=1 Conn=Wye kV=0.208 kW=3.0 kvar=0.0
New Load.trip_load_684_C_h_3	Bus1=trip_node_684_C_1.1.2 phases=1 Conn=Wye kV=0.208 kW=3.0 kvar=0.0
New Load.trip_load_684_C_h_4	Bus1=trip_node_684_C_1.1.2 phases=1 Conn=Wye kV=0.208 kW=3.0 kvar=0.0
New Load.trip_load_684_C_h_5	Bus1=trip_node_684_C_1.1.2 phases=1 Conn=Wye kV=0.208 kW=3.0 kvar=0.0
New Load.trip_load_684_C_h_6	Bus1=trip_node_684_C_1.1.2 phases=1 Conn=Wye kV=0.208 kW=3.0 kvar=0.0
New Load.trip_load_684_C_h_7	Bus1=trip_node_684_C_1.1.2 phases=1 Conn=Wye kV=0.208 kW=3.0 kvar=0.0
New Load.trip_load_684_C_h_8	Bus1=trip_node_684_C_1.1.2 phases=1 Conn=Wye kV=0.208 kW=3.0 kvar=0.0
New Load.trip_load_684_C_h_9	Bus1=trip_node_684_C_2.1.2 phases=1 Conn=Wye kV=0.208 kW=3.0 kvar=0.0
New Load.trip_load_684_C_h_10	Bus1=trip_node_684_C_2.1.2 phases=1 Conn=Wye kV=0.208 kW=3.0 kvar=0.0
New Load.trip_load_684_C_h_11	Bus1=trip_node_684_C_2.1.2 phases=1 Conn=Wye kV=0.208 kW=3.0 kvar=0.0
New Load.trip_load_684_C_h_12	Bus1=trip_node_684_C_2.1.2 phases=1 Conn=Wye kV=0.208 kW=3.0 kvar=0.0
New Load.trip_load_684_C_h_13	Bus1=trip_node_684_C_2.1.2 phases=1 Conn=Wye kV=0.208 kW=3.0 kvar=0.0
New Load.trip_load_684_C_h_14	Bus1=trip_node_684_C_2.1.2 phases=1 Conn=Wye kV=0.208 kW=3.0 kvar=0.0
New Load.trip_load_684_C_h_15	Bus1=trip_node_684_C_2.1.2 phases=1 Conn=Wye kV=0.208 kW=3.0 kvar=0.0
New Load.trip_load_684_C_h_16	Bus1=trip_node_684_C_2.1.2 phases=1 Conn=Wye kV=0.208 kW=3.0 kvar=0.0
New Load.trip_load_684_C_h_17	Bus1=trip_node_684_C_3.1.2 phases=1 Conn=Wye kV=0.208 kW=3.0 kvar=0.0
New Load.trip_load_684_C_h_18	Bus1=trip_node_684_C_3.1.2 phases=1 Conn=Wye kV=0.208 kW=3.0 kvar=0.0
New Load.trip_load_684_C_h_19	Bus1=trip_node_684_C_3.1.2 phases=1 Conn=Wye kV=0.208 kW=3.0 kvar=0.0
New Load.trip_load_684_C_h_20	Bus1=trip_node_684_C_3.1.2 phases=1 Conn=Wye kV=0.208 kW=3.0 kvar=0.0
New Load.trip_load_684_C_h_21	Bus1=trip_node_684_C_3.1.2 phases=1 Conn=Wye kV=0.208 kW=3.0 kvar=0.0
New Load.trip_load_684_C_h_22	Bus1=trip_node_684_C_3.1.2 phases=1 Conn=Wye kV=0.208 kW=3.0 kvar=0.0
New Load.trip_load_684_C_h_23	Bus1=trip_node_684_C_3.1.2 phases=1 Conn=Wye kV=0.208 kW=3.0 kvar=0.0
New Load.trip_load_684_C_h_24	Bus1=trip_node_684_C_3.1.2 phases=1 Conn=Wye kV=0.208 kW=3.0 kvar=0.0
New Load.trip_load_684_C_h_25	Bus1=trip_node_684_C_4.1.2 phases=1 Conn=Wye kV=0.208 kW=3.0 kvar=0.0
New Load.trip_load_684_C_h_26	Bus1=trip_node_684_C_4.1.2 phases=1 Conn=Wye kV=0.208 kW=3.0 kvar=0.0
New Load.trip_load_684_C_h_27	Bus1=trip_node_684_C_4.1.2 phases=1 Conn=Wye kV=0.208 kW=3.0 kvar=0.0
New Load.trip_load_684_C_h_28	Bus1=trip_node_684_C_4.1.2 phases=1 Conn=Wye kV=0.208 kW=3.0 kvar=0.0
New Load.trip_load_684_C_h_29	Bus1=trip_node_684_C_4.1.2 phases=1 Conn=Wye kV=0.208 kW=3.0 kvar=0.0
New Load.trip_load_684_C_h_30	Bus1=trip_node_684_C_4.1.2 phases=1 Conn=Wye kV=0.208 kW=3.0 kvar=0.0
New Load.trip_load_684_C_h_31	Bus1=trip_node_684_C_4.1.2 phases=1 Conn=Wye kV=0.208 kW=3.0 kvar=0.0
New Load.trip_load_684_C_h_32	Bus1=trip_node_684_C_4.1.2 phases=1 Conn=Wye kV=0.208 kW=3.0 kvar=0.0
New Load.trip_load_684_C_h_33	Bus1=trip_node_684_C_5.1.2 phases=1 Conn=Wye kV=0.208 kW=3.0 kvar=0.0
New Load.trip_load_684_C_h_34	Bus1=trip_node_684_C_5.1.2 phases=1 Conn=Wye kV=0.208 kW=3.0 kvar=0.0
New Load.trip_load_684_C_h_35	Bus1=trip_node_684_C_5.1.2 phases=1 Conn=Wye kV=0.208 kW=3.0 kvar=0.0
New Load.trip_load_684_C_h_36	Bus1=trip_node_684_C_5.1.2 phases=1 Conn=Wye kV=0.208 kW=3.0 kvar=0.0
New Load.trip_load_684_C_h_37	Bus1=trip_node_684_C_5.1.2 phases=1 Conn=Wye kV=0.208 kW=3.0 kvar=0.0
New Load.trip_load_684_C_h_38	Bus1=trip_node_684_C_5.1.2 phases=1 Conn=Wye kV=0.208 kW=3.0 kvar=0.0
New Load.trip_load_684_C_h_39	Bus1=trip_node_684_C_5.1.2 phases=1 Conn=Wye kV=0.208 kW=3.0 kvar=0.0
New Load.trip_load_684_C_h_40	Bus1=trip_node_684_C_5.1.2 phases=1 Conn=Wye kV=0.208 kW=3.0 kvar=0.0
New Load.trip_load_684_A_h_1	Bus1=trip_node_684_A_1.1.2 phases=1 Conn=Wye kV=0.208 kW=3.0 kvar=0.0
New Load.trip_load_684_A_h_2	Bus1=trip_node_684_A_1.1.2 phases=1 Conn=Wye kV=0.208 kW=3.0 kvar=0.0
New Load.trip_load_684_A_h_3	Bus1=trip_node_684_A_1.1.2 phases=1 Conn=Wye kV=0.208 kW=3.0 kvar=0.0
New Load.trip_load_684_A_h_4	Bus1=trip_node_684_A_1.1.2 phases=1 Conn=Wye kV=0.208 kW=3.0 kvar=0.0
New Load.trip_load_684_A_h_5	Bus1=trip_node_684_A_1.1.2 phases=1 Conn=Wye kV=0.208 kW=3.0 kvar=0.0
New Load.trip_load_684_A_h_6	Bus1=trip_node_684_A_1.1.2 phases=1 Conn=Wye kV=0.208 kW=3.0 kvar=0.0
New Load.trip_load_684_A_h_7	Bus1=trip_node_684_A_1.1.2 phases=1 Conn=Wye kV=0.208 kW=3.0 kvar=0.0
New Load.trip_load_684_A_h_8	Bus1=trip_node_684_A_1.1.2 phases=1 Conn=Wye kV=0.208 kW=3.0 kvar=0.0
New Load.trip_load_684_A_h_9	Bus1=trip_node_684_A_2.1.2 phases=1 Conn=Wye kV=0.208 kW=3.0 kvar=0.0
New Load.trip_load_684_A_h_10	Bus1=trip_node_684_A_2.1.2 phases=1 Conn=Wye kV=0.208 kW=3.0 kvar=0.0
New Load.trip_load_684_A_h_11	Bus1=trip_node_684_A_2.1.2 phases=1 Conn=Wye kV=0.208 kW=3.0 kvar=0.0
New Load.trip_load_684_A_h_12	Bus1=trip_node_684_A_2.1.2 phases=1 Conn=Wye kV=0.208 kW=3.0 kvar=0.0
New Load.trip_load_684_A_h_13	Bus1=trip_node_684_A_2.1.2 phases=1 Conn=Wye kV=0.208 kW=3.0 kvar=0.0
New Load.trip_load_684_A_h_14	Bus1=trip_node_684_A_2.1.2 phases=1 Conn=Wye kV=0.208 kW=3.0 kvar=0.0
New Load.trip_load_684_A_h_15	Bus1=trip_node_684_A_2.1.2 phases=1 Conn=Wye kV=0.208 kW=3.0 kvar=0.0
New Load.trip_load_684_A_h_16	Bus1=trip_node_684_A_2.1.2 phases=1 Conn=Wye kV=0.208 kW=3.0 kvar=0.0
New Load.trip_load_684_A_h_17	Bus1=trip_node_684_A_3.1.2 phases=1 Conn=Wye kV=0.208 kW=3.0 kvar=0.0
New Load.trip_load_684_A_h_18	Bus1=trip_node_684_A_3.1.2 phases=1 Conn=Wye kV=0.208 kW=3.0 kvar=0.0
New Load.trip_load_684_A_h_19	Bus1=trip_node_684_A_3.1.2 phases=1 Conn=Wye kV=0.208 kW=3.0 kvar=0.0
New Load.trip_load_684_A_h_20	Bus1=trip_node_684_A_3.1.2 phases=1 Conn=Wye kV=0.208 kW=3.0 kvar=0.0
New Load.trip_load_684_A_h_21	Bus1=trip_node_684_A_3.1.2 phases=1 Conn=Wye kV=0.208 kW=3.0 kvar=0.0
New Load.trip_load_684_A_h_22	Bus1=trip_node_684_A_3.1.2 phases=1 Conn=Wye kV=0.208 kW=3.0 kvar=0.0
New Load.trip_load_684_A_h_23	Bus1=trip_node_684_A_3.1.2 phases=1 Conn=Wye kV=0.208 kW=3.0 kvar=0.0
New Load.trip_load_684_A_h_24	Bus1=trip_node_684_A_3.1.2 phases=1 Conn=Wye kV=0.208 kW=3.0 kvar=0.0
New Load.trip_load_684_A_h_25	Bus1=trip_node_684_A_4.1.2 phases=1 Conn=Wye kV=0.208 kW=3.0 kvar=0.0
New Load.trip_load_684_A_h_26	Bus1=trip_node_684_A_4.1.2 phases=1 Conn=Wye kV=0.208 kW=3.0 kvar=0.0
New Load.trip_load_684_A_h_27	Bus1=trip_node_684_A_4.1.2 phases=1 Conn=Wye kV=0.208 kW=3.0 kvar=0.0
New Load.trip_load_684_A_h_28	Bus1=trip_node_684_A_4.1.2 phases=1 Conn=Wye kV=0.208 kW=3.0 kvar=0.0
New Load.trip_load_684_A_h_29	Bus1=trip_node_684_A_4.1.2 phases=1 Conn=Wye kV=0.208 kW=3.0 kvar=0.0
New Load.trip_load_684_A_h_30	Bus1=trip_node_684_A_4.1.2 phases=1 Conn=Wye kV=0.208 kW=3.0 kvar=0.0
New Load.trip_load_684_A_h_31	Bus1=trip_node_684_A_4.1.2 phases=1 Conn=Wye kV=0.208 kW=3.0 kvar=0.0
New Load.trip_load_684_A_h_32	Bus1=trip_node_684_A_4.1.2 phases=1 Conn=Wye kV=0.208 kW=3.0 kvar=0.0
New Load.trip_load_684_A_h_33	Bus1=trip_node_684_A_5.1.2 phases=1 Conn=Wye kV=0.208 kW=3.0 kvar=0.0
New Load.trip_load_684_A_h_34	Bus1=trip_node_684_A_5.1.2 phases=1 Conn=Wye kV=0.208 kW=3.0 kvar=0.0
New Load.trip_load_684_A_h_35	Bus1=trip_node_684_A_5.1.2 phases=1 Conn=Wye kV=0.208 kW=3.0 kvar=0.0
New Load.trip_load_684_A_h_36	Bus1=trip_node_684_A_5.1.2 phases=1 Conn=Wye kV=0.208 kW=3.0 kvar=0.0
New Load.trip_load_684_A_h_37	Bus1=trip_node_684_A_5.1.2 phases=1 Conn=Wye kV=0.208 kW=3.0 kvar=0.0
New Load.trip_load_684_A_h_38	Bus1=trip_node_684_A_5.1.2 phases=1 Conn=Wye kV=0.208 kW=3.0 kvar=0.0
New Load.trip_load_684_A_h_39	Bus1=trip_node_684_A_5.1.2 phases=1 Conn=Wye kV=0.208 kW=3.0 kvar=0.0
New Load.trip_load_684_A_h_40	Bus1=trip_node_684_A_5.1.2 phases=1 Conn=Wye kV=0.208 kW=3.0 kvar=0.0
New Load.trip_load_645_B_h_1	Bus1=trip_node_645_B_1.1.2 phases=1 Conn=Wye kV=0.208 kW=3.0 kvar=0.0
New Load.trip_load_645_B_h_2	Bus1=trip_node_645_B_1.1.2 phases=1 Conn=Wye kV=0.208 kW=3.0 kvar=0.0
New Load.trip_load_645_B_h_3	Bus1=trip_node_645_B_1.1.2 phases=1 Conn=Wye kV=0.208 kW=3.0 kvar=0.0
New Load.trip_load_645_B_h_4	Bus1=trip_node_645_B_1.1.2 phases=1 Conn=Wye kV=0.208 kW=3.0 kvar=0.0
New Load.trip_load_645_B_h_5	Bus1=trip_node_645_B_1.1.2 phases=1 Conn=Wye kV=0.208 kW=3.0 kvar=0.0
New Load.trip_load_645_B_h_6	Bus1=trip_node_645_B_1.1.2 phases=1 Conn=Wye kV=0.208 kW=3.0 kvar=0.0
New Load.trip_load_645_B_h_7	Bus1=trip_node_645_B_1.1.2 phases=1 Conn=Wye kV=0.208 kW=3.0 kvar=0.0
New Load.trip_load_645_B_h_8	Bus1=trip_node_645_B_1.1.2 phases=1 Conn=Wye kV=0.208 kW=3.0 kvar=0.0
New Load.trip_load_645_B_h_9	Bus1=trip_node_645_B_2.1.2 phases=1 Conn=Wye kV=0.208 kW=3.0 kvar=0.0
New Load.trip_load_645_B_h_10	Bus1=trip_node_645_B_2.1.2 phases=1 Conn=Wye kV=0.208 kW=3.0 kvar=0.0
New Load.trip_load_645_B_h_11	Bus1=trip_node_645_B_2.1.2 phases=1 Conn=Wye kV=0.208 kW=3.0 kvar=0.0
New Load.trip_load_645_B_h_12	Bus1=trip_node_645_B_2.1.2 phases=1 Conn=Wye kV=0.208 kW=3.0 kvar=0.0
New Load.trip_load_645_B_h_13	Bus1=trip_node_645_B_2.1.2 phases=1 Conn=Wye kV=0.208 kW=3.0 kvar=0.0
New Load.trip_load_645_B_h_14	Bus1=trip_node_645_B_2.1.2 phases=1 Conn=Wye kV=0.208 kW=3.0 kvar=0.0
New Load.trip_load_645_B_h_15	Bus1=trip_node_645_B_2.1.2 phases=1 Conn=Wye kV=0.208 kW=3.0 kvar=0.0
New Load.trip_load_645_B_h_16	Bus1=trip_node_645_B_2.1.2 phases=1 Conn=Wye kV=0.208 kW=3.0 kvar=0.0
New Load.trip_load_645_B_h_17	Bus1=trip_node_645_B_3.1.2 phases=1 Conn=Wye kV=0.208 kW=3.0 kvar=0.0
New Load.trip_load_645_B_h_18	Bus1=trip_node_645_B_3.1.2 phases=1 Conn=Wye kV=0.208 kW=3.0 kvar=0.0
New Load.trip_load_645_B_h_19	Bus1=trip_node_645_B_3.1.2 phases=1 Conn=Wye kV=0.208 kW=3.0 kvar=0.0
New Load.trip_load_645_B_h_20	Bus1=trip_node_645_B_3.1.2 phases=1 Conn=Wye kV=0.208 kW=3.0 kvar=0.0
New Load.trip_load_645_B_h_21	Bus1=trip_node_645_B_3.1.2 phases=1 Conn=Wye kV=0.208 kW=3.0 kvar=0.0
New Load.trip_load_645_B_h_22	Bus1=trip_node_645_B_3.1.2 phases=1 Conn=Wye kV=0.208 kW=3.0 kvar=0.0
New Load.trip_load_645_B_h_23	Bus1=trip_node_645_B_3.1.2 phases=1 Conn=Wye kV=0.208 kW=3.0 kvar=0.0
New Load.trip_load_645_B_h_24	Bus1=trip_node_645_B_3.1.2 phases=1 Conn=Wye kV=0.208 kW=3.0 kvar=0.0
New Load.trip_load_645_B_h_25	Bus1=trip_node_645_B_4.1.2 phases=1 Conn=Wye kV=0.208 kW=3.0 kvar=0.0
New Load.trip_load_645_B_h_26	Bus1=trip_node_645_B_4.1.2 phases=1 Conn=Wye kV=0.208 kW=3.0 kvar=0.0
New Load.trip_load_645_B_h_27	Bus1=trip_node_645_B_4.1.2 phases=1 Conn=Wye kV=0.208 kW=3.0 kvar=0.0
New Load.trip_load_645_B_h_28	Bus1=trip_node_645_B_4.1.2 phases=1 Conn=Wye kV=0.208 kW=3.0 kvar=0.0
New Load.trip_load_645_B_h_29	Bus1=trip_node_645_B_4.1.2 phases=1 Conn=Wye kV=0.208 kW=3.0 kvar=0.0
New Load.trip_load_645_B_h_30	Bus1=trip_node_645_B_4.1.2 phases=1 Conn=Wye kV=0.208 kW=3.0 kvar=0.0
New Load.trip_load_645_B_h_31	Bus1=trip_node_645_B_4.1.2 phases=1 Conn=Wye kV=0.208 kW=3.0 kvar=0.0
New Load.trip_load_645_B_h_32	Bus1=trip_node_645_B_4.1.2 phases=1 Conn=Wye kV=0.208 kW=3.0 kvar=0.0
New Load.trip_load_645_B_h_33	Bus1=trip_node_645_B_5.1.2 phases=1 Conn=Wye kV=0.208 kW=3.0 kvar=0.0
New Load.trip_load_645_B_h_34	Bus1=trip_node_645_B_5.1.2 phases=1 Conn=Wye kV=0.208 kW=3.0 kvar=0.0
New Load.trip_load_645_B_h_35	Bus1=trip_node_645_B_5.1.2 phases=1 Conn=Wye kV=0.208 kW=3.0 kvar=0.0
New Load.trip_load_645_B_h_36	Bus1=trip_node_645_B_5.1.2 phases=1 Conn=Wye kV=0.208 kW=3.0 kvar=0.0
New Load.trip_load_645_B_h_37	Bus1=trip_node_645_B_5.1.2 phases=1 Conn=Wye kV=0.208 kW=3.0 kvar=0.0
New Load.trip_load_645_B_h_38	Bus1=trip_node_645_B_5.1.2 phases=1 Conn=Wye kV=0.208 kW=3.0 kvar=0.0
New Load.trip_load_645_B_h_39	Bus1=trip_node_645_B_5.1.2 phases=1 Conn=Wye kV=0.208 kW=3.0 kvar=0.0
New Load.trip_load_645_B_h_40	Bus1=trip_node_645_B_5.1.2 phases=1 Conn=Wye kV=0.208 kW=3.0 kvar=0.0
...
